Version 4
SHEET 1 1480 1488
WIRE 528 208 528 96
WIRE 640 208 528 208
WIRE 864 208 864 112
WIRE 864 208 672 208
WIRE 944 256 800 256
WIRE -272 272 -1408 272
WIRE -96 272 -272 272
WIRE 352 288 320 288
WIRE 640 288 640 208
WIRE 640 288 608 288
WIRE -96 304 -96 272
WIRE -16 304 -96 304
WIRE 320 304 320 288
WIRE 320 304 48 304
WIRE -16 320 -64 320
WIRE -272 336 -272 272
WIRE 672 336 672 208
WIRE 752 336 672 336
WIRE 672 352 672 336
WIRE 672 352 608 352
WIRE -64 384 -64 320
WIRE -32 384 -64 384
WIRE 160 384 160 96
WIRE 160 384 32 384
WIRE 944 384 944 256
WIRE 1056 384 944 384
WIRE 1168 384 1136 384
WIRE 1296 384 1168 384
WIRE -272 400 -288 400
WIRE 352 416 288 416
WIRE 640 416 640 288
WIRE 640 416 608 416
WIRE -64 432 -96 432
WIRE -32 432 -64 432
WIRE 64 432 32 432
WIRE 192 432 128 432
WIRE 944 448 944 384
WIRE 944 448 800 448
WIRE 672 480 608 480
WIRE 672 528 672 480
WIRE 752 528 672 528
WIRE 192 544 128 544
WIRE -64 560 -64 432
WIRE -32 560 -64 560
WIRE 128 560 128 544
WIRE 128 560 32 560
WIRE 256 560 256 544
WIRE 288 560 288 416
WIRE 288 560 256 560
WIRE -288 576 -288 400
WIRE -32 576 -288 576
WIRE 1296 608 1296 384
WIRE -432 656 -1088 656
WIRE 672 688 672 528
WIRE 1296 720 1296 672
WIRE 1296 720 816 720
WIRE -1088 736 -1088 656
WIRE -1024 736 -1088 736
WIRE -896 736 -944 736
WIRE 1296 752 1296 720
WIRE -688 768 -736 768
WIRE -592 768 -624 768
WIRE -960 816 -976 816
WIRE -704 832 -704 704
WIRE -656 832 -704 832
WIRE -960 848 -960 816
WIRE -912 864 -912 848
WIRE -912 864 -928 864
WIRE -656 864 -656 832
WIRE -1088 880 -1088 736
WIRE -992 880 -1088 880
WIRE -592 880 -592 768
WIRE -592 880 -624 880
WIRE -560 880 -592 880
WIRE -432 880 -432 656
WIRE -432 880 -480 880
WIRE 1296 880 1296 832
WIRE -896 896 -896 736
WIRE -896 896 -928 896
WIRE -864 896 -896 896
WIRE -736 896 -736 768
WIRE -736 896 -784 896
WIRE -688 896 -736 896
WIRE -592 912 -624 912
WIRE -288 912 -288 896
WIRE -224 912 -288 912
WIRE -288 928 -288 912
WIRE -592 944 -592 912
WIRE -288 1008 -352 1008
WIRE -736 1104 -736 896
WIRE -528 1104 -736 1104
WIRE 64 1120 -48 1120
WIRE 144 1120 128 1120
WIRE -768 1168 -784 1168
WIRE -768 1200 -768 1168
WIRE 16 1200 16 1072
WIRE 80 1200 16 1200
WIRE -592 1216 -736 1216
WIRE -528 1216 -528 1104
WIRE 80 1216 80 1200
WIRE -1408 1232 -1408 272
WIRE -800 1232 -1408 1232
WIRE 144 1232 144 1120
WIRE 144 1232 112 1232
WIRE 176 1232 144 1232
WIRE 816 1232 816 720
WIRE 816 1232 256 1232
WIRE -48 1248 -48 1120
WIRE -48 1248 -736 1248
WIRE 48 1248 -48 1248
WIRE -592 1264 -592 1216
WIRE -768 1280 -768 1264
FLAG 800 352 VDD
IOPIN 800 352 In
FLAG 800 544 0
FLAG 1168 448 0
FLAG -160 432 0
FLAG -128 384 0
FLAG 352 352 0
FLAG 864 112 V_Gate_P
IOPIN 864 112 Out
FLAG 672 688 V_Gate_N
IOPIN 672 688 Out
FLAG 528 96 VDD
IOPIN 528 96 In
FLAG 160 96 V_Gate_N
IOPIN 160 96 In
FLAG 192 432 V_Gate_P
IOPIN 192 432 In
FLAG 352 480 0
FLAG -352 1008 VCM
IOPIN -352 1008 Out
FLAG -288 1088 0
FLAG -704 704 VDD
IOPIN -704 704 In
FLAG -592 1344 VCM
IOPIN -592 1344 In
FLAG -784 1168 VDD
IOPIN -784 1168 In
FLAG -976 816 VDD
IOPIN -976 816 In
FLAG -912 848 VCM
IOPIN -912 848 In
FLAG -224 912 VDD
IOPIN -224 912 Out
FLAG -288 816 0
FLAG -592 944 VCM
IOPIN -592 944 In
FLAG -656 928 0
FLAG -960 912 0
FLAG -768 1280 0
FLAG 1296 880 0
FLAG 112 1264 VREF
IOPIN 112 1264 In
FLAG 16 1072 VDD
IOPIN 16 1072 In
FLAG 80 1280 0
FLAG 224 1472 0
FLAG 224 1392 VREF
IOPIN 224 1392 Out
SYMBOL nmos 752 448 R0
SYMATTR InstName M1
SYMATTR Value IRFZ24
SYMBOL pmos 752 256 R0
SYMATTR InstName M2
SYMATTR Value Si4425BDY
SYMBOL cap 1152 384 R0
SYMATTR InstName C1
SYMATTR Value 47µ
SYMBOL ind 1152 400 M270
WINDOW 0 32 56 VTop 2
WINDOW 3 5 56 VBottom 2
SYMATTR InstName L1
SYMATTR Value 100µ
SYMBOL and 16 224 R0
WINDOW 3 16 46 Invisible 2
SYMATTR Value Vhigh=5
SYMATTR InstName A1
SYMBOL and 0 480 R0
WINDOW 0 26 108 Left 2
WINDOW 3 -48 -1 Invisible 2
SYMATTR InstName A2
SYMATTR Value Vhigh=5
SYMBOL cap -96 416 R90
WINDOW 0 0 32 VBottom 2
WINDOW 3 32 32 VTop 2
SYMATTR InstName C2
SYMATTR Value 1n
SYMBOL cap -64 368 R90
WINDOW 0 0 32 VBottom 2
WINDOW 3 32 32 VTop 2
SYMATTR InstName C3
SYMATTR Value 1n
SYMBOL LTC1693-1 480 384 R0
SYMATTR InstName U1
SYMBOL inv 32 496 R180
WINDOW 3 8 10 Invisible 2
SYMATTR Value Vhigh=5
SYMATTR InstName A3
SYMBOL inv 128 496 R180
WINDOW 3 8 10 Invisible 2
SYMATTR Value Vhigh=5
SYMATTR InstName A4
SYMBOL inv 32 448 R180
WINDOW 3 8 10 Invisible 2
SYMATTR Value Vhigh=5
SYMATTR InstName A5
SYMBOL inv 192 480 R0
WINDOW 3 8 54 Invisible 2
SYMATTR Value Vhigh=5
SYMATTR InstName A6
SYMBOL inv -208 336 R90
WINDOW 3 8 54 Invisible 2
SYMATTR Value Vhigh=5
SYMATTR InstName A7
SYMBOL res -880 880 M90
WINDOW 0 0 56 VBottom 2
WINDOW 3 32 56 VTop 2
SYMATTR InstName R1
SYMATTR Value 10k
SYMBOL res -1040 720 M90
WINDOW 0 0 56 VBottom 2
WINDOW 3 32 56 VTop 2
SYMATTR InstName R2
SYMATTR Value 50k
SYMBOL res -576 864 M90
WINDOW 0 0 56 VBottom 2
WINDOW 3 32 56 VTop 2
SYMATTR InstName R3
SYMATTR Value 12.5k
SYMBOL res -608 1360 M180
WINDOW 0 36 76 Left 2
WINDOW 3 36 40 Left 2
SYMATTR InstName RBIAS1
SYMATTR Value 10k
SYMBOL res -304 1104 M180
WINDOW 0 36 76 Left 2
WINDOW 3 36 40 Left 2
SYMATTR InstName RSplit1
SYMATTR Value 10
SYMBOL res -304 1024 M180
WINDOW 0 36 76 Left 2
WINDOW 3 36 40 Left 2
SYMATTR InstName RSplit2
SYMATTR Value 10
SYMBOL cap -688 752 M90
WINDOW 0 0 32 VBottom 2
WINDOW 3 32 32 VTop 2
SYMATTR InstName C4
SYMATTR Value 1n
SYMBOL cap -592 1200 M90
WINDOW 0 0 32 VBottom 2
WINDOW 3 32 32 VTop 2
SYMATTR InstName CBIAS1
SYMATTR Value 1n
SYMBOL voltage -288 912 M180
WINDOW 0 24 96 Left 2
WINDOW 3 24 16 Left 2
SYMATTR InstName VDD1
SYMATTR Value 5
SYMBOL UniversalOpamp2 -656 896 M0
SYMATTR InstName U2
SYMBOL UniversalOpamp2 -960 880 M0
SYMATTR InstName U3
SYMBOL UniversalOpamp2 -768 1232 M0
SYMATTR InstName U4
SYMBOL UniversalOpamp2 80 1248 M0
SYMATTR InstName U5
SYMBOL cap 128 1104 R90
WINDOW 0 0 32 VBottom 2
WINDOW 3 32 32 VTop 2
SYMATTR InstName C5
SYMATTR Value 47n
SYMBOL res 272 1216 R90
WINDOW 0 0 56 VBottom 2
WINDOW 3 32 56 VTop 2
SYMATTR InstName R
SYMATTR Value 10k
SYMBOL LED 1280 608 R0
SYMATTR InstName D1
SYMATTR Value NSSW008CT-P1
SYMBOL res 1280 736 R0
SYMATTR InstName R5
SYMATTR Value 5
SYMBOL voltage 224 1376 R0
SYMATTR InstName V1
SYMATTR Value 2.5
SYMATTR SpiceLine Rser=0
TEXT -1016 1400 Right 5 !.tran 10e-5 uic
TEXT -136 1224 Left 2 ;VCTRL
TEXT -1264 1192 Left 2 ;VPWM
TEXT -712 960 Left 2 ;Vramp
TEXT 976 360 Left 2 ;VSW
TEXT 1240 360 Left 2 ;Vout
TEXT 624 1184 Left 2 ;VFB
