Version 4
SHEET 1 3012 680
WIRE 560 -48 560 -160
WIRE 672 -48 560 -48
WIRE 896 -48 896 -144
WIRE 896 -48 704 -48
WIRE 976 0 832 0
WIRE -240 16 -368 16
WIRE -64 16 -240 16
WIRE 384 32 352 32
WIRE 672 32 672 -48
WIRE 672 32 640 32
WIRE -368 48 -368 16
WIRE -64 48 -64 16
WIRE 16 48 -64 48
WIRE 352 48 352 32
WIRE 352 48 80 48
WIRE 16 64 -32 64
WIRE -240 80 -240 16
WIRE 704 80 704 -48
WIRE 784 80 704 80
WIRE 704 96 704 80
WIRE 704 96 640 96
WIRE -32 128 -32 64
WIRE 0 128 -32 128
WIRE 192 128 192 -160
WIRE 192 128 64 128
WIRE 976 128 976 0
WIRE 1088 128 976 128
WIRE 1200 128 1168 128
WIRE 1328 128 1200 128
WIRE -240 144 -256 144
WIRE 384 160 320 160
WIRE 672 160 672 32
WIRE 672 160 640 160
WIRE -32 176 -64 176
WIRE 0 176 -32 176
WIRE 96 176 64 176
WIRE 224 176 160 176
WIRE 976 192 976 128
WIRE 976 192 832 192
WIRE 704 224 640 224
WIRE 704 272 704 224
WIRE 784 272 704 272
WIRE 224 288 160 288
WIRE -32 304 -32 176
WIRE 0 304 -32 304
WIRE 160 304 160 288
WIRE 160 304 64 304
WIRE 288 304 288 288
WIRE 320 304 320 160
WIRE 320 304 288 304
WIRE -256 320 -256 144
WIRE 0 320 -256 320
WIRE 704 432 704 272
FLAG 832 96 VDD
IOPIN 832 96 In
FLAG 832 288 0
FLAG 1200 192 0
FLAG -128 176 0
FLAG -368 128 0
FLAG -96 128 0
FLAG -560 -144 VDD
IOPIN -560 -144 Out
FLAG -560 -64 0
FLAG 384 96 0
FLAG 896 -144 V_Gate_P
IOPIN 896 -144 Out
FLAG 704 432 V_Gate_N
IOPIN 704 432 Out
FLAG 560 -160 VDD
IOPIN 560 -160 In
FLAG 192 -160 V_Gate_N
IOPIN 192 -160 In
FLAG 224 176 V_Gate_P
IOPIN 224 176 In
FLAG 384 224 0
SYMBOL nmos 784 192 R0
SYMATTR InstName M1
SYMATTR Value IRFZ24
SYMBOL pmos 784 0 R0
SYMATTR InstName M2
SYMATTR Value Si4425BDY
SYMBOL cap 1184 128 R0
SYMATTR InstName C1
SYMATTR Value 47µ
SYMBOL ind 1184 144 M270
WINDOW 0 32 56 VTop 2
WINDOW 3 5 56 VBottom 2
SYMATTR InstName L1
SYMATTR Value 100µ
SYMBOL and 48 -32 R0
WINDOW 3 16 46 Left 2
SYMATTR Value Vhigh=5
SYMATTR InstName A1
SYMBOL and 32 224 R0
WINDOW 0 26 108 Left 2
WINDOW 3 -48 -1 Left 2
SYMATTR InstName A2
SYMATTR Value Vhigh=5
SYMBOL cap -64 160 R90
WINDOW 0 0 32 VBottom 2
WINDOW 3 32 32 VTop 2
SYMATTR InstName C2
SYMATTR Value 1n
SYMBOL voltage -368 32 R0
WINDOW 3 -215 128 Left 2
SYMATTR Value PULSE(0 5 0 0 0 7.5us 10us)
SYMATTR InstName V1
SYMBOL cap -32 112 R90
WINDOW 0 0 32 VBottom 2
WINDOW 3 32 32 VTop 2
SYMATTR InstName C3
SYMATTR Value 1n
SYMBOL voltage -560 -160 R0
SYMATTR InstName V2
SYMATTR Value 5
SYMBOL LTC1693-1 512 128 R0
SYMATTR InstName U1
SYMBOL inv 64 240 R180
WINDOW 3 8 10 Left 2
SYMATTR Value Vhigh=5
SYMATTR InstName A8
SYMBOL inv 160 240 R180
SYMATTR InstName A9
SYMBOL inv 64 192 R180
WINDOW 3 8 10 Left 2
SYMATTR Value Vhigh=5
SYMATTR InstName A10
SYMBOL inv 224 224 R0
WINDOW 3 8 54 Left 2
SYMATTR Value Vhigh=5
SYMATTR InstName A11
SYMBOL inv -176 80 R90
WINDOW 3 8 54 Left 2
SYMATTR Value Vhigh=5
SYMATTR InstName A12
TEXT 632 -88 Left 2 !.tran 10e-5 uic
