Version 4
SHEET 1 1220 856
WIRE 848 -16 720 -16
WIRE 1056 0 912 0
WIRE 848 16 720 16
WIRE 880 48 880 32
WIRE 0 64 -32 64
WIRE 112 64 80 64
WIRE 272 64 144 64
WIRE -32 144 -32 64
WIRE 32 144 -32 144
WIRE 112 144 112 64
WIRE 112 144 64 144
WIRE 144 144 144 64
WIRE 144 144 112 144
WIRE 208 144 144 144
WIRE 272 144 272 64
WIRE 272 144 240 144
WIRE 320 144 272 144
WIRE -32 208 -32 144
WIRE 320 208 -32 208
WIRE -224 224 -416 224
WIRE -208 224 -224 224
WIRE 32 256 32 144
WIRE 32 256 -96 256
WIRE 64 256 64 144
WIRE 144 256 64 256
WIRE 208 272 208 144
WIRE 208 272 160 272
WIRE 240 272 240 144
WIRE 384 272 240 272
WIRE -32 336 -64 336
WIRE 144 336 144 256
WIRE 144 336 112 336
WIRE 160 336 160 272
WIRE 192 336 160 336
WIRE 384 336 384 272
WIRE 384 336 336 336
WIRE -96 352 -96 256
WIRE -64 352 -64 336
WIRE -64 352 -96 352
WIRE -576 432 -720 432
WIRE 48 480 -64 480
WIRE 880 496 752 496
WIRE 1104 512 944 512
WIRE 880 528 752 528
WIRE -64 544 -64 480
WIRE -32 544 -64 544
WIRE 48 544 48 480
WIRE 48 544 0 544
WIRE 96 544 48 544
WIRE 208 544 176 544
WIRE 304 544 208 544
WIRE 208 560 208 544
WIRE -32 576 -32 544
WIRE -32 576 -112 576
WIRE 48 608 48 544
WIRE 48 624 48 608
WIRE 0 688 0 544
WIRE 96 688 0 688
WIRE -192 720 -352 720
WIRE -96 736 -96 720
WIRE -80 736 -96 736
WIRE 96 736 96 688
WIRE 96 736 64 736
WIRE -112 752 -112 576
WIRE -96 752 -96 736
WIRE -96 752 -112 752
FLAG 48 672 0
FLAG -96 144 Vin_a
IOPIN -96 144 In
FLAG 320 144 Vin_a1
IOPIN 320 144 Out
FLAG 320 208 Vin_a2
IOPIN 320 208 Out
FLAG 304 544 Vramp_classD
IOPIN 304 544 Out
FLAG 720 16 Vin_a1
IOPIN 720 16 In
FLAG 752 528 Vin_a2
IOPIN 752 528 In
FLAG 720 -16 Vramp_classD
IOPIN 720 -16 In
FLAG 752 496 Vramp_classD
IOPIN 752 496 In
FLAG 1056 0 Vpwm_p
FLAG 1104 512 Vpwm_n
FLAG -416 304 0
FLAG -352 800 0
FLAG -416 144 0
FLAG -352 640 0
FLAG -224 224 Vin_a
IOPIN -224 224 Out
FLAG -192 720 Vramp
IOPIN -192 720 Out
FLAG 912 544 0
FLAG 880 48 0
FLAG -720 512 0
FLAG -720 352 0
FLAG -576 432 Vdd
IOPIN -576 432 Out
FLAG 880 -32 Vdd
FLAG 912 480 Vdd
FLAG -32 304 Vdd
IOPIN -32 304 In
FLAG 192 320 Vdd
IOPIN 192 320 In
FLAG -80 704 Vdd
IOPIN -80 704 In
FLAG -32 368 0
FLAG 192 368 0
FLAG 208 624 0
FLAG -80 768 0
SYMBOL res 96 48 R90
WINDOW 0 0 56 VBottom 2
WINDOW 3 32 56 VTop 2
SYMATTR InstName Rlarge
SYMATTR Value 1Meg
SYMBOL res 192 528 R90
WINDOW 0 0 56 VBottom 2
WINDOW 3 32 56 VTop 2
SYMATTR InstName Rbias
SYMATTR Value 1k
SYMBOL cap 32 608 R0
SYMATTR InstName Cbypass
SYMATTR Value 0.1µ
SYMBOL cap 192 560 R0
SYMATTR InstName C2
SYMATTR Value 0.1µ
SYMBOL cap -32 128 R90
WINDOW 0 0 32 VBottom 2
WINDOW 3 32 32 VTop 2
SYMATTR InstName C3
SYMATTR Value 1µ
SYMBOL LTC6752 880 -64 R0
SYMATTR InstName U1
SYMBOL LTC6752 912 448 R0
SYMATTR InstName U2
SYMBOL voltage -416 208 R0
WINDOW 123 0 0 Left 2
WINDOW 39 0 0 Left 2
SYMATTR InstName V1
SYMATTR Value SINE(0 5 1k 0 0 0 10000)
SYMBOL voltage -352 704 R0
WINDOW 123 0 0 Left 2
WINDOW 39 0 0 Left 2
SYMATTR InstName V2
SYMATTR Value PULSE(0 5 0 5u 5u 0 10u)
SYMBOL res -432 128 R0
SYMATTR InstName R1
SYMATTR Value 10k
SYMBOL res -368 624 R0
SYMATTR InstName R2
SYMATTR Value 10k
SYMBOL voltage -720 416 R0
WINDOW 123 0 0 Left 2
WINDOW 39 0 0 Left 2
SYMATTR InstName V3
SYMATTR Value 5
SYMBOL res -736 336 R0
SYMATTR InstName R3
SYMATTR Value 10k
SYMBOL mosinv 32 336 R0
WINDOW 0 8 -40 Bottom 2
SYMATTR InstName X1
SYMBOL mosinv 256 336 R0
WINDOW 0 8 -40 Bottom 2
SYMATTR InstName X2
SYMBOL mosinv -16 736 R0
WINDOW 0 8 -40 Bottom 2
SYMATTR InstName X3
TEXT 816 840 Left 2 !.tran 0 1e-0 0 1 uic
