Version 4
SHEET 1 1936 1028
WIRE 208 0 192 0
WIRE 400 0 288 0
WIRE 720 16 528 16
WIRE 80 96 48 96
WIRE 160 96 144 96
WIRE 192 96 192 0
WIRE 192 96 160 96
WIRE 208 96 192 96
WIRE 224 96 208 96
WIRE 288 96 272 96
WIRE 400 96 400 0
WIRE 528 96 528 16
WIRE 528 96 400 96
WIRE 544 96 528 96
WIRE 560 96 544 96
WIRE 624 96 608 96
WIRE 720 96 720 16
WIRE 720 96 704 96
WIRE 752 96 720 96
WIRE 208 128 192 128
WIRE 544 128 528 128
WIRE 192 192 192 128
WIRE 400 192 400 96
WIRE 400 192 192 192
WIRE 528 192 528 128
WIRE 720 192 720 96
WIRE 720 192 528 192
WIRE 160 272 160 96
WIRE 496 272 160 272
WIRE -464 320 -464 288
WIRE 1456 416 1456 400
WIRE 1424 432 1264 432
WIRE 1664 448 1488 448
WIRE 1424 464 1264 464
WIRE 1440 656 1264 656
WIRE 464 672 16 672
WIRE 1664 672 1504 672
WIRE 1440 688 1264 688
WIRE 1264 720 1264 688
WIRE 208 752 160 752
WIRE 304 752 272 752
WIRE 16 784 16 672
WIRE 160 784 160 752
WIRE 160 784 16 784
WIRE 208 784 160 784
WIRE 464 784 464 672
WIRE 512 784 464 784
WIRE 656 784 592 784
WIRE 720 784 656 784
WIRE 160 832 160 784
WIRE 656 896 656 848
FLAG 752 96 Vin_a+
IOPIN 752 96 Out
FLAG 496 272 Vin_a-
IOPIN 496 272 Out
FLAG 48 96 Vin_a
IOPIN 48 96 In
FLAG 16 400 0
FLAG 16 320 Vin_a
IOPIN 16 320 Out
FLAG -320 96 0
FLAG -320 16 Vcc
IOPIN -320 16 Out
FLAG 272 128 0
FLAG 608 128 0
FLAG 288 96 Vcc
IOPIN 288 96 In
FLAG 624 96 Vcc
IOPIN 624 96 In
FLAG 272 784 0
FLAG 304 752 Vcc
IOPIN 304 752 In
FLAG 160 896 0
FLAG 656 896 Vramp
IOPIN 656 896 In
FLAG 720 784 Vramp_classD
IOPIN 720 784 Out
FLAG -464 400 0
FLAG -464 288 Vramp
IOPIN -464 288 Out
FLAG 1264 432 Vramp_classD
IOPIN 1264 432 In
FLAG 1264 656 Vramp_classD
IOPIN 1264 656 In
FLAG 1264 464 Vin_a+
IOPIN 1264 464 In
FLAG 1264 720 Vin_a-
IOPIN 1264 720 In
FLAG 1664 448 Vpwm_P
IOPIN 1664 448 Out
FLAG 1664 672 Vpwm_N
IOPIN 1664 672 Out
FLAG 1456 480 0
FLAG 1472 704 0
FLAG 1456 400 Vcc
IOPIN 1456 400 In
FLAG 1472 640 Vcc
IOPIN 1472 640 In
SYMBOL cap 144 80 R90
WINDOW 0 0 32 VBottom 2
WINDOW 3 32 32 VTop 2
SYMATTR InstName C1
SYMATTR Value 1n
SYMBOL res 304 -16 R90
WINDOW 0 0 56 VBottom 2
WINDOW 3 32 56 VTop 2
SYMATTR InstName R1
SYMATTR Value 100k
SYMBOL voltage 16 304 R0
WINDOW 3 24 152 Left 2
WINDOW 123 24 124 Left 2
WINDOW 39 0 0 Left 2
SYMATTR Value SINE(2.5 2.5 1000 0 0 0 1000000)
SYMATTR InstName V1
SYMBOL CD4049UB 576 112 R0
SYMATTR InstName U2
SYMBOL CD4049UB 240 112 R0
SYMATTR InstName U1
SYMBOL voltage -320 0 R0
WINDOW 123 0 0 Left 2
WINDOW 39 0 0 Left 2
SYMATTR InstName V2
SYMATTR Value 5
SYMBOL CD4049UB 240 768 R0
SYMATTR InstName U3
SYMBOL cap 144 832 R0
SYMATTR InstName C2
SYMATTR Value 1n
SYMBOL res 608 768 R90
WINDOW 0 0 56 VBottom 2
WINDOW 3 32 56 VTop 2
SYMATTR InstName R2
SYMATTR Value 1k
SYMBOL cap 640 784 R0
SYMATTR InstName C3
SYMATTR Value 1n
SYMBOL voltage -464 304 R0
WINDOW 123 0 0 Left 2
WINDOW 39 0 0 Left 2
SYMATTR InstName V3
SYMATTR Value PULSE(0 5 0 0.5m 0.5m 0 1m 1000000)
SYMBOL LTC6752 1456 384 R0
SYMATTR InstName U4
SYMBOL LTC6752 1472 608 R0
SYMATTR InstName U5
TEXT -72 448 Left 2 !.tran 100m uic
